* Spice description of alu3b7_cougar
* Spice driver version -1217853383
* Date ( dd/mm/yyyy hh:mm:ss ): 22/04/2018 at 15:37:11

* INTERF a[0] a[1] a[2] b[0] b[1] b[2] resultado[0] resultado[1] 
* INTERF resultado[2] resultado[3] resultado[4] resultado[5] s[0] s[1] s[2] 
* INTERF vdd vss 


.subckt alu3b7_cougar 242 267 396 278 269 376 395 384 381 370 367 359 373 350 
+ 401 403 353 
* NET 13 = na2_x1_3_sig
* NET 18 = na3_x1_2_sig
* NET 20 = o2_x2_sig
* NET 22 = o2_x2_2_sig
* NET 36 = not_aux3
* NET 39 = inv_x2_3_sig
* NET 40 = not_aux32
* NET 42 = noa22_x1_2_sig
* NET 47 = a2_x2_7_sig
* NET 48 = o2_x2_3_sig
* NET 59 = inv_x2_7_sig
* NET 62 = not_aux17
* NET 65 = aux37
* NET 66 = a2_x2_5_sig
* NET 67 = no2_x1_3_sig
* NET 70 = aux33
* NET 72 = a3_x2_4_sig
* NET 81 = ao22_x2_sig
* NET 82 = a2_x2_4_sig
* NET 86 = no2_x1_2_sig
* NET 87 = not_aux14
* NET 95 = aux36
* NET 96 = no2_x1_6_sig
* NET 104 = an12_x1_sig
* NET 109 = oa2ao222_x2_sig
* NET 112 = oa2a22_x2_5_sig
* NET 113 = nao2o22_x1_2_sig
* NET 119 = no2_x1_4_sig
* NET 122 = ao22_x2_5_sig
* NET 123 = ao22_x2_4_sig
* NET 125 = a2_x2_6_sig
* NET 131 = not_aux23
* NET 134 = not_aux18
* NET 135 = no3_x1_4_sig
* NET 136 = oa2ao222_x2_2_sig
* NET 141 = not_aux33
* NET 149 = aux34
* NET 157 = a3_x2_sig
* NET 161 = a2_x2_sig
* NET 163 = a2_x2_2_sig
* NET 170 = a2_x2_3_sig
* NET 171 = not_aux4
* NET 175 = noa22_x1_sig
* NET 177 = not_aux6
* NET 179 = nao22_x1_sig
* NET 180 = not_a[0]
* NET 198 = inv_x2_4_sig
* NET 199 = not_aux35
* NET 202 = not_aux21
* NET 205 = not_aux7
* NET 211 = not_b[1]
* NET 212 = not_aux1
* NET 219 = not_aux0
* NET 220 = na3_x1_sig
* NET 225 = not_aux5
* NET 227 = na2_x1_sig
* NET 231 = oa2a22_x2_sig
* NET 233 = aux1
* NET 242 = a[0]
* NET 246 = aux9
* NET 249 = xr2_x1_5_sig
* NET 252 = xr2_x1_4_sig
* NET 255 = aux12
* NET 257 = inv_x2_5_sig
* NET 258 = not_s[0]
* NET 261 = na2_x1_2_sig
* NET 263 = aux2
* NET 266 = inv_x2_sig
* NET 267 = a[1]
* NET 269 = b[1]
* NET 271 = xr2_x1_2_sig
* NET 274 = nxr2_x1_sig
* NET 278 = b[0]
* NET 279 = not_b[0]
* NET 280 = no2_x1_sig
* NET 294 = noa22_x1_3_sig
* NET 295 = inv_x2_6_sig
* NET 296 = no3_x1_sig
* NET 299 = no3_x1_2_sig
* NET 303 = not_a[1]
* NET 304 = not_aux22
* NET 308 = na3_x1_3_sig
* NET 312 = not_b[2]
* NET 313 = no3_x1_3_sig
* NET 315 = na2_x1_4_sig
* NET 318 = nao2o22_x1_3_sig
* NET 319 = a3_x2_5_sig
* NET 322 = o3_x2_sig
* NET 323 = ao22_x2_3_sig
* NET 324 = ao22_x2_2_sig
* NET 330 = no2_x1_5_sig
* NET 331 = a3_x2_2_sig
* NET 332 = nao2o22_x1_sig
* NET 337 = oa22_x2_sig
* NET 341 = xr2_x1_sig
* NET 343 = oa2a22_x2_2_sig
* NET 350 = s[1]
* NET 353 = vss
* NET 354 = not_aux30
* NET 355 = aux38
* NET 356 = not_aux10
* NET 357 = o4_x2_sig
* NET 359 = resultado[5]
* NET 360 = a2_x2_8_sig
* NET 361 = inv_x2_8_sig
* NET 364 = na2_x1_5_sig
* NET 367 = resultado[4]
* NET 369 = aux31
* NET 370 = resultado[3]
* NET 371 = inv_x2_2_sig
* NET 373 = s[0]
* NET 374 = aux13
* NET 375 = not_a[2]
* NET 376 = b[2]
* NET 378 = a3_x2_3_sig
* NET 380 = mx3_x2_sig
* NET 381 = resultado[2]
* NET 384 = resultado[1]
* NET 385 = oa22_x2_2_sig
* NET 389 = not_s[1]
* NET 390 = oa2a22_x2_3_sig
* NET 395 = resultado[0]
* NET 396 = a[2]
* NET 398 = xr2_x1_3_sig
* NET 400 = oa2a22_x2_4_sig
* NET 401 = s[2]
* NET 403 = vdd
* NET 404 = not_s[2]
Mtr_00770 404 401 403 403 tp L=1U W=15U AS=30P AD=30P PS=34U PD=34U 
Mtr_00769 403 371 372 403 tp L=1U W=10U AS=20P AD=20P PS=24U PD=24U 
Mtr_00768 378 372 403 403 tp L=1U W=20U AS=40P AD=40P PS=44U PD=44U 
Mtr_00767 403 401 372 403 tp L=1U W=10U AS=20P AD=20P PS=24U PD=24U 
Mtr_00766 372 374 403 403 tp L=1U W=10U AS=20P AD=20P PS=24U PD=24U 
Mtr_00765 387 391 392 403 tp L=1U W=10U AS=20P AD=20P PS=24U PD=24U 
Mtr_00764 403 386 393 403 tp L=1U W=10U AS=20P AD=20P PS=24U PD=24U 
Mtr_00763 388 389 403 403 tp L=1U W=10U AS=20P AD=20P PS=24U PD=24U 
Mtr_00762 392 385 388 403 tp L=1U W=10U AS=20P AD=20P PS=24U PD=24U 
Mtr_00761 393 398 387 403 tp L=1U W=10U AS=20P AD=20P PS=24U PD=24U 
Mtr_00760 394 390 393 403 tp L=1U W=10U AS=20P AD=20P PS=24U PD=24U 
Mtr_00759 392 404 394 403 tp L=1U W=10U AS=20P AD=20P PS=24U PD=24U 
Mtr_00758 381 392 403 403 tp L=1U W=20U AS=40P AD=40P PS=44U PD=44U 
Mtr_00757 391 404 403 403 tp L=1U W=7U AS=14P AD=14P PS=18U PD=18U 
Mtr_00756 403 389 386 403 tp L=1U W=7U AS=14P AD=14P PS=18U PD=18U 
Mtr_00755 403 382 385 403 tp L=1U W=20U AS=40P AD=40P PS=44U PD=44U 
Mtr_00754 383 378 403 403 tp L=1U W=10U AS=20P AD=20P PS=24U PD=24U 
Mtr_00753 383 380 382 403 tp L=1U W=10U AS=20P AD=20P PS=24U PD=24U 
Mtr_00752 382 404 383 403 tp L=1U W=10U AS=20P AD=20P PS=24U PD=24U 
Mtr_00751 379 374 377 403 tp L=1U W=10U AS=20P AD=20P PS=24U PD=24U 
Mtr_00750 379 375 403 403 tp L=1U W=10U AS=20P AD=20P PS=24U PD=24U 
Mtr_00749 403 376 379 403 tp L=1U W=10U AS=20P AD=20P PS=24U PD=24U 
Mtr_00748 377 396 379 403 tp L=1U W=10U AS=20P AD=20P PS=24U PD=24U 
Mtr_00747 390 377 403 403 tp L=1U W=20U AS=40P AD=40P PS=44U PD=44U 
Mtr_00746 374 376 403 403 tp L=1U W=10U AS=20P AD=20P PS=24U PD=24U 
Mtr_00745 403 373 374 403 tp L=1U W=10U AS=20P AD=20P PS=24U PD=24U 
Mtr_00744 397 396 403 403 tp L=1U W=10U AS=20P AD=20P PS=24U PD=24U 
Mtr_00743 403 400 402 403 tp L=1U W=10U AS=20P AD=20P PS=24U PD=24U 
Mtr_00742 398 397 399 403 tp L=1U W=20U AS=40P AD=40P PS=44U PD=44U 
Mtr_00741 399 400 403 403 tp L=1U W=20U AS=40P AD=40P PS=44U PD=44U 
Mtr_00740 399 402 398 403 tp L=1U W=20U AS=40P AD=40P PS=44U PD=44U 
Mtr_00739 403 396 399 403 tp L=1U W=20U AS=40P AD=40P PS=44U PD=44U 
Mtr_00738 375 396 403 403 tp L=1U W=15U AS=30P AD=30P PS=34U PD=34U 
Mtr_00737 368 375 369 403 tp L=1U W=20U AS=40P AD=40P PS=44U PD=44U 
Mtr_00736 403 373 368 403 tp L=1U W=20U AS=40P AD=40P PS=44U PD=44U 
Mtr_00735 371 369 403 403 tp L=1U W=15U AS=30P AD=30P PS=34U PD=34U 
Mtr_00734 403 354 359 403 tp L=1U W=20U AS=40P AD=40P PS=44U PD=44U 
Mtr_00733 358 357 403 403 tp L=1U W=20U AS=40P AD=40P PS=44U PD=44U 
Mtr_00732 359 360 358 403 tp L=1U W=20U AS=40P AD=40P PS=44U PD=44U 
Mtr_00731 366 361 365 403 tp L=1U W=15U AS=30P AD=30P PS=34U PD=34U 
Mtr_00730 362 373 366 403 tp L=1U W=15U AS=30P AD=30P PS=34U PD=34U 
Mtr_00729 363 364 362 403 tp L=1U W=15U AS=30P AD=30P PS=34U PD=34U 
Mtr_00728 403 356 363 403 tp L=1U W=15U AS=30P AD=30P PS=34U PD=34U 
Mtr_00727 403 365 357 403 tp L=1U W=20U AS=40P AD=40P PS=44U PD=44U 
Mtr_00726 364 396 403 403 tp L=1U W=10U AS=20P AD=20P PS=24U PD=24U 
Mtr_00725 403 376 364 403 tp L=1U W=10U AS=20P AD=20P PS=24U PD=24U 
Mtr_00724 361 355 403 403 tp L=1U W=15U AS=30P AD=30P PS=34U PD=34U 
Mtr_00723 403 334 337 403 tp L=1U W=20U AS=40P AD=40P PS=44U PD=44U 
Mtr_00722 288 331 403 403 tp L=1U W=10U AS=20P AD=20P PS=24U PD=24U 
Mtr_00721 288 332 334 403 tp L=1U W=10U AS=20P AD=20P PS=24U PD=24U 
Mtr_00720 334 404 288 403 tp L=1U W=10U AS=20P AD=20P PS=24U PD=24U 
Mtr_00719 293 389 355 403 tp L=1U W=20U AS=40P AD=40P PS=44U PD=44U 
Mtr_00718 403 401 293 403 tp L=1U W=20U AS=40P AD=40P PS=44U PD=44U 
Mtr_00717 389 350 403 403 tp L=1U W=15U AS=30P AD=30P PS=34U PD=34U 
Mtr_00716 292 342 347 403 tp L=1U W=10U AS=20P AD=20P PS=24U PD=24U 
Mtr_00715 403 336 291 403 tp L=1U W=10U AS=20P AD=20P PS=24U PD=24U 
Mtr_00714 289 389 403 403 tp L=1U W=10U AS=20P AD=20P PS=24U PD=24U 
Mtr_00713 347 337 289 403 tp L=1U W=10U AS=20P AD=20P PS=24U PD=24U 
Mtr_00712 291 341 292 403 tp L=1U W=10U AS=20P AD=20P PS=24U PD=24U 
Mtr_00711 290 343 291 403 tp L=1U W=10U AS=20P AD=20P PS=24U PD=24U 
Mtr_00710 347 404 290 403 tp L=1U W=10U AS=20P AD=20P PS=24U PD=24U 
Mtr_00709 384 347 403 403 tp L=1U W=20U AS=40P AD=40P PS=44U PD=44U 
Mtr_00708 342 404 403 403 tp L=1U W=7U AS=14P AD=14P PS=18U PD=18U 
Mtr_00707 403 389 336 403 tp L=1U W=7U AS=14P AD=14P PS=18U PD=18U 
Mtr_00706 370 326 403 403 tp L=1U W=20U AS=40P AD=40P PS=44U PD=44U 
Mtr_00705 286 324 285 403 tp L=1U W=20U AS=40P AD=40P PS=44U PD=44U 
Mtr_00704 286 330 403 403 tp L=1U W=14.5U AS=29P AD=29P PS=33U PD=33U 
Mtr_00703 403 322 286 403 tp L=1U W=14.5U AS=29P AD=29P PS=33U PD=33U 
Mtr_00702 285 323 326 403 tp L=1U W=20U AS=40P AD=40P PS=44U PD=44U 
Mtr_00701 326 355 286 403 tp L=1U W=20U AS=40P AD=40P PS=44U PD=44U 
Mtr_00700 403 308 311 403 tp L=1U W=10U AS=20P AD=20P PS=24U PD=24U 
Mtr_00699 319 311 403 403 tp L=1U W=20U AS=40P AD=40P PS=44U PD=44U 
Mtr_00698 403 369 311 403 tp L=1U W=10U AS=20P AD=20P PS=24U PD=24U 
Mtr_00697 311 315 403 403 tp L=1U W=10U AS=20P AD=20P PS=24U PD=24U 
Mtr_00696 287 350 330 403 tp L=1U W=20U AS=40P AD=40P PS=44U PD=44U 
Mtr_00695 403 401 287 403 tp L=1U W=20U AS=40P AD=40P PS=44U PD=44U 
Mtr_00694 315 312 403 403 tp L=1U W=10U AS=20P AD=20P PS=24U PD=24U 
Mtr_00693 403 356 315 403 tp L=1U W=10U AS=20P AD=20P PS=24U PD=24U 
Mtr_00692 403 313 283 403 tp L=1U W=15U AS=30P AD=30P PS=34U PD=34U 
Mtr_00691 283 319 284 403 tp L=1U W=15U AS=30P AD=30P PS=34U PD=34U 
Mtr_00690 284 318 320 403 tp L=1U W=15U AS=30P AD=30P PS=34U PD=34U 
Mtr_00689 322 320 403 403 tp L=1U W=20U AS=40P AD=40P PS=44U PD=44U 
Mtr_00688 403 304 308 403 tp L=1U W=10U AS=20P AD=20P PS=24U PD=24U 
Mtr_00687 308 303 403 403 tp L=1U W=10U AS=20P AD=20P PS=24U PD=24U 
Mtr_00686 308 312 403 403 tp L=1U W=10U AS=20P AD=20P PS=24U PD=24U 
Mtr_00685 295 355 403 403 tp L=1U W=15U AS=30P AD=30P PS=34U PD=34U 
Mtr_00684 403 354 367 403 tp L=1U W=20U AS=40P AD=40P PS=44U PD=44U 
Mtr_00683 281 294 403 403 tp L=1U W=20U AS=40P AD=40P PS=44U PD=44U 
Mtr_00682 367 295 281 403 tp L=1U W=20U AS=40P AD=40P PS=44U PD=44U 
Mtr_00681 360 305 403 403 tp L=1U W=20U AS=40P AD=40P PS=44U PD=44U 
Mtr_00680 403 303 305 403 tp L=1U W=10U AS=20P AD=20P PS=24U PD=24U 
Mtr_00679 305 304 403 403 tp L=1U W=10U AS=20P AD=20P PS=24U PD=24U 
Mtr_00678 403 296 354 403 tp L=1U W=20U AS=40P AD=40P PS=44U PD=44U 
Mtr_00677 282 375 403 403 tp L=1U W=20U AS=40P AD=40P PS=44U PD=44U 
Mtr_00676 354 299 282 403 tp L=1U W=20U AS=40P AD=40P PS=44U PD=44U 
Mtr_00675 279 278 403 403 tp L=1U W=15U AS=30P AD=30P PS=34U PD=34U 
Mtr_00674 266 263 403 403 tp L=1U W=15U AS=30P AD=30P PS=34U PD=34U 
Mtr_00673 273 271 403 403 tp L=1U W=10U AS=20P AD=20P PS=24U PD=24U 
Mtr_00672 403 280 277 403 tp L=1U W=10U AS=20P AD=20P PS=24U PD=24U 
Mtr_00671 341 273 276 403 tp L=1U W=20U AS=40P AD=40P PS=44U PD=44U 
Mtr_00670 276 280 403 403 tp L=1U W=20U AS=40P AD=40P PS=44U PD=44U 
Mtr_00669 276 277 341 403 tp L=1U W=20U AS=40P AD=40P PS=44U PD=44U 
Mtr_00668 403 271 276 403 tp L=1U W=20U AS=40P AD=40P PS=44U PD=44U 
Mtr_00667 263 269 403 403 tp L=1U W=10U AS=20P AD=20P PS=24U PD=24U 
Mtr_00666 403 373 263 403 tp L=1U W=10U AS=20P AD=20P PS=24U PD=24U 
Mtr_00665 275 274 280 403 tp L=1U W=20U AS=40P AD=40P PS=44U PD=44U 
Mtr_00664 403 279 275 403 tp L=1U W=20U AS=40P AD=40P PS=44U PD=44U 
Mtr_00663 403 261 262 403 tp L=1U W=10U AS=20P AD=20P PS=24U PD=24U 
Mtr_00662 331 262 403 403 tp L=1U W=20U AS=40P AD=40P PS=44U PD=44U 
Mtr_00661 403 401 262 403 tp L=1U W=10U AS=20P AD=20P PS=24U PD=24U 
Mtr_00660 262 263 403 403 tp L=1U W=10U AS=20P AD=20P PS=24U PD=24U 
Mtr_00659 268 267 403 403 tp L=1U W=10U AS=20P AD=20P PS=24U PD=24U 
Mtr_00658 403 269 272 403 tp L=1U W=10U AS=20P AD=20P PS=24U PD=24U 
Mtr_00657 271 268 270 403 tp L=1U W=20U AS=40P AD=40P PS=44U PD=44U 
Mtr_00656 270 269 403 403 tp L=1U W=20U AS=40P AD=40P PS=44U PD=44U 
Mtr_00655 270 272 271 403 tp L=1U W=20U AS=40P AD=40P PS=44U PD=44U 
Mtr_00654 403 267 270 403 tp L=1U W=20U AS=40P AD=40P PS=44U PD=44U 
Mtr_00653 261 267 403 403 tp L=1U W=10U AS=20P AD=20P PS=24U PD=24U 
Mtr_00652 403 258 261 403 tp L=1U W=10U AS=20P AD=20P PS=24U PD=24U 
Mtr_00651 264 263 265 403 tp L=1U W=10U AS=20P AD=20P PS=24U PD=24U 
Mtr_00650 264 269 403 403 tp L=1U W=10U AS=20P AD=20P PS=24U PD=24U 
Mtr_00649 403 303 264 403 tp L=1U W=10U AS=20P AD=20P PS=24U PD=24U 
Mtr_00648 265 267 264 403 tp L=1U W=10U AS=20P AD=20P PS=24U PD=24U 
Mtr_00647 343 265 403 403 tp L=1U W=20U AS=40P AD=40P PS=44U PD=44U 
Mtr_00646 251 249 250 403 tp L=1U W=10U AS=20P AD=20P PS=24U PD=24U 
Mtr_00645 251 267 403 403 tp L=1U W=10U AS=20P AD=20P PS=24U PD=24U 
Mtr_00644 403 252 251 403 tp L=1U W=10U AS=20P AD=20P PS=24U PD=24U 
Mtr_00643 250 303 251 403 tp L=1U W=10U AS=20P AD=20P PS=24U PD=24U 
Mtr_00642 400 250 403 403 tp L=1U W=20U AS=40P AD=40P PS=44U PD=44U 
Mtr_00641 403 303 260 403 tp L=1U W=20U AS=40P AD=40P PS=44U PD=44U 
Mtr_00640 259 257 313 403 tp L=1U W=20U AS=40P AD=40P PS=44U PD=44U 
Mtr_00639 260 312 259 403 tp L=1U W=20U AS=40P AD=40P PS=44U PD=44U 
Mtr_00638 257 255 403 403 tp L=1U W=15U AS=30P AD=30P PS=34U PD=34U 
Mtr_00637 253 376 403 403 tp L=1U W=10U AS=20P AD=20P PS=24U PD=24U 
Mtr_00636 403 255 256 403 tp L=1U W=10U AS=20P AD=20P PS=24U PD=24U 
Mtr_00635 252 253 254 403 tp L=1U W=20U AS=40P AD=40P PS=44U PD=44U 
Mtr_00634 254 255 403 403 tp L=1U W=20U AS=40P AD=40P PS=44U PD=44U 
Mtr_00633 254 256 252 403 tp L=1U W=20U AS=40P AD=40P PS=44U PD=44U 
Mtr_00632 403 376 254 403 tp L=1U W=20U AS=40P AD=40P PS=44U PD=44U 
Mtr_00631 245 376 403 403 tp L=1U W=10U AS=20P AD=20P PS=24U PD=24U 
Mtr_00630 403 246 247 403 tp L=1U W=10U AS=20P AD=20P PS=24U PD=24U 
Mtr_00629 249 245 248 403 tp L=1U W=20U AS=40P AD=40P PS=44U PD=44U 
Mtr_00628 248 246 403 403 tp L=1U W=20U AS=40P AD=40P PS=44U PD=44U 
Mtr_00627 248 247 249 403 tp L=1U W=20U AS=40P AD=40P PS=44U PD=44U 
Mtr_00626 403 376 248 403 tp L=1U W=20U AS=40P AD=40P PS=44U PD=44U 
Mtr_00625 403 240 196 403 tp L=1U W=20U AS=40P AD=40P PS=44U PD=44U 
Mtr_00624 196 241 274 403 tp L=1U W=20U AS=40P AD=40P PS=44U PD=44U 
Mtr_00623 196 242 403 403 tp L=1U W=20U AS=40P AD=40P PS=44U PD=44U 
Mtr_00622 274 373 196 403 tp L=1U W=20U AS=40P AD=40P PS=44U PD=44U 
Mtr_00621 403 242 241 403 tp L=1U W=10U AS=20P AD=20P PS=24U PD=24U 
Mtr_00620 240 373 403 403 tp L=1U W=10U AS=20P AD=20P PS=24U PD=24U 
Mtr_00619 403 278 220 403 tp L=1U W=10U AS=20P AD=20P PS=24U PD=24U 
Mtr_00618 220 258 403 403 tp L=1U W=10U AS=20P AD=20P PS=24U PD=24U 
Mtr_00617 220 401 403 403 tp L=1U W=10U AS=20P AD=20P PS=24U PD=24U 
Mtr_00616 191 279 223 403 tp L=1U W=15U AS=30P AD=30P PS=34U PD=34U 
Mtr_00615 403 242 191 403 tp L=1U W=15U AS=30P AD=30P PS=34U PD=34U 
Mtr_00614 225 223 403 403 tp L=1U W=20U AS=40P AD=40P PS=44U PD=44U 
Mtr_00613 194 232 237 403 tp L=1U W=10U AS=20P AD=20P PS=24U PD=24U 
Mtr_00612 403 226 195 403 tp L=1U W=10U AS=20P AD=20P PS=24U PD=24U 
Mtr_00611 192 350 403 403 tp L=1U W=10U AS=20P AD=20P PS=24U PD=24U 
Mtr_00610 237 227 192 403 tp L=1U W=10U AS=20P AD=20P PS=24U PD=24U 
Mtr_00609 195 231 194 403 tp L=1U W=10U AS=20P AD=20P PS=24U PD=24U 
Mtr_00608 193 233 195 403 tp L=1U W=10U AS=20P AD=20P PS=24U PD=24U 
Mtr_00607 237 401 193 403 tp L=1U W=10U AS=20P AD=20P PS=24U PD=24U 
Mtr_00606 395 237 403 403 tp L=1U W=20U AS=40P AD=40P PS=44U PD=44U 
Mtr_00605 232 401 403 403 tp L=1U W=7U AS=14P AD=14P PS=18U PD=18U 
Mtr_00604 403 350 226 403 tp L=1U W=7U AS=14P AD=14P PS=18U PD=18U 
Mtr_00603 227 219 403 403 tp L=1U W=10U AS=20P AD=20P PS=24U PD=24U 
Mtr_00602 403 220 227 403 tp L=1U W=10U AS=20P AD=20P PS=24U PD=24U 
Mtr_00601 403 350 186 403 tp L=1U W=20U AS=40P AD=40P PS=44U PD=44U 
Mtr_00600 187 202 296 403 tp L=1U W=20U AS=40P AD=40P PS=44U PD=44U 
Mtr_00599 186 401 187 403 tp L=1U W=20U AS=40P AD=40P PS=44U PD=44U 
Mtr_00598 212 233 403 403 tp L=1U W=15U AS=30P AD=30P PS=34U PD=34U 
Mtr_00597 403 356 189 403 tp L=1U W=20U AS=40P AD=40P PS=44U PD=44U 
Mtr_00596 255 225 189 403 tp L=1U W=20U AS=40P AD=40P PS=44U PD=44U 
Mtr_00595 189 373 255 403 tp L=1U W=20U AS=40P AD=40P PS=44U PD=44U 
Mtr_00594 211 269 403 403 tp L=1U W=15U AS=30P AD=30P PS=34U PD=34U 
Mtr_00593 403 205 188 403 tp L=1U W=20U AS=40P AD=40P PS=44U PD=44U 
Mtr_00592 246 258 188 403 tp L=1U W=20U AS=40P AD=40P PS=44U PD=44U 
Mtr_00591 188 212 246 403 tp L=1U W=20U AS=40P AD=40P PS=44U PD=44U 
Mtr_00590 356 209 403 403 tp L=1U W=20U AS=40P AD=40P PS=44U PD=44U 
Mtr_00589 403 212 209 403 tp L=1U W=10U AS=20P AD=20P PS=24U PD=24U 
Mtr_00588 209 211 403 403 tp L=1U W=10U AS=20P AD=20P PS=24U PD=24U 
Mtr_00587 198 246 403 403 tp L=1U W=15U AS=30P AD=30P PS=34U PD=34U 
Mtr_00586 318 198 185 403 tp L=1U W=20U AS=40P AD=40P PS=44U PD=44U 
Mtr_00585 185 199 403 403 tp L=1U W=20U AS=40P AD=40P PS=44U PD=44U 
Mtr_00584 184 396 318 403 tp L=1U W=20U AS=40P AD=40P PS=44U PD=44U 
Mtr_00583 403 202 184 403 tp L=1U W=20U AS=40P AD=40P PS=44U PD=44U 
Mtr_00582 182 258 181 403 tp L=1U W=10U AS=20P AD=20P PS=24U PD=24U 
Mtr_00581 182 279 403 403 tp L=1U W=10U AS=20P AD=20P PS=24U PD=24U 
Mtr_00580 403 373 182 403 tp L=1U W=10U AS=20P AD=20P PS=24U PD=24U 
Mtr_00579 181 180 182 403 tp L=1U W=10U AS=20P AD=20P PS=24U PD=24U 
Mtr_00578 231 181 403 403 tp L=1U W=20U AS=40P AD=40P PS=44U PD=44U 
Mtr_00577 403 225 179 403 tp L=1U W=20U AS=40P AD=40P PS=44U PD=44U 
Mtr_00576 178 177 403 403 tp L=1U W=20U AS=40P AD=40P PS=44U PD=44U 
Mtr_00575 179 180 178 403 tp L=1U W=20U AS=40P AD=40P PS=44U PD=44U 
Mtr_00574 403 266 176 403 tp L=1U W=20U AS=40P AD=40P PS=44U PD=44U 
Mtr_00573 175 179 176 403 tp L=1U W=20U AS=40P AD=40P PS=44U PD=44U 
Mtr_00572 176 258 175 403 tp L=1U W=20U AS=40P AD=40P PS=44U PD=44U 
Mtr_00571 233 183 403 403 tp L=1U W=20U AS=40P AD=40P PS=44U PD=44U 
Mtr_00570 403 278 183 403 tp L=1U W=10U AS=20P AD=20P PS=24U PD=24U 
Mtr_00569 183 242 403 403 tp L=1U W=10U AS=20P AD=20P PS=24U PD=24U 
Mtr_00568 205 166 403 403 tp L=1U W=20U AS=40P AD=40P PS=44U PD=44U 
Mtr_00567 403 225 166 403 tp L=1U W=10U AS=20P AD=20P PS=24U PD=24U 
Mtr_00566 166 211 403 403 tp L=1U W=10U AS=20P AD=20P PS=24U PD=24U 
Mtr_00565 170 173 403 403 tp L=1U W=20U AS=40P AD=40P PS=44U PD=44U 
Mtr_00564 403 258 173 403 tp L=1U W=10U AS=20P AD=20P PS=24U PD=24U 
Mtr_00563 173 219 403 403 tp L=1U W=10U AS=20P AD=20P PS=24U PD=24U 
Mtr_00562 403 167 168 403 tp L=1U W=20U AS=40P AD=40P PS=44U PD=44U 
Mtr_00561 168 169 219 403 tp L=1U W=20U AS=40P AD=40P PS=44U PD=44U 
Mtr_00560 168 242 403 403 tp L=1U W=20U AS=40P AD=40P PS=44U PD=44U 
Mtr_00559 219 278 168 403 tp L=1U W=20U AS=40P AD=40P PS=44U PD=44U 
Mtr_00558 403 242 169 403 tp L=1U W=10U AS=20P AD=20P PS=24U PD=24U 
Mtr_00557 167 278 403 403 tp L=1U W=10U AS=20P AD=20P PS=24U PD=24U 
Mtr_00556 332 175 174 403 tp L=1U W=20U AS=40P AD=40P PS=44U PD=44U 
Mtr_00555 174 303 403 403 tp L=1U W=20U AS=40P AD=40P PS=44U PD=44U 
Mtr_00554 172 267 332 403 tp L=1U W=20U AS=40P AD=40P PS=44U PD=44U 
Mtr_00553 403 171 172 403 tp L=1U W=20U AS=40P AD=40P PS=44U PD=44U 
Mtr_00552 155 312 156 403 tp L=1U W=15U AS=30P AD=30P PS=34U PD=34U 
Mtr_00551 403 267 155 403 tp L=1U W=15U AS=30P AD=30P PS=34U PD=34U 
Mtr_00550 199 156 403 403 tp L=1U W=20U AS=40P AD=40P PS=44U PD=44U 
Mtr_00549 403 205 164 403 tp L=1U W=20U AS=40P AD=40P PS=44U PD=44U 
Mtr_00548 162 161 299 403 tp L=1U W=20U AS=40P AD=40P PS=44U PD=44U 
Mtr_00547 164 312 162 403 tp L=1U W=20U AS=40P AD=40P PS=44U PD=44U 
Mtr_00546 403 258 158 403 tp L=1U W=15U AS=30P AD=30P PS=34U PD=34U 
Mtr_00545 158 163 159 403 tp L=1U W=15U AS=30P AD=30P PS=34U PD=34U 
Mtr_00544 159 157 160 403 tp L=1U W=15U AS=30P AD=30P PS=34U PD=34U 
Mtr_00543 202 160 403 403 tp L=1U W=20U AS=40P AD=40P PS=44U PD=44U 
Mtr_00542 163 165 403 403 tp L=1U W=20U AS=40P AD=40P PS=44U PD=44U 
Mtr_00541 403 205 165 403 tp L=1U W=10U AS=20P AD=20P PS=24U PD=24U 
Mtr_00540 165 312 403 403 tp L=1U W=10U AS=20P AD=20P PS=24U PD=24U 
Mtr_00539 105 141 119 403 tp L=1U W=20U AS=40P AD=40P PS=44U PD=44U 
Mtr_00538 403 211 105 403 tp L=1U W=20U AS=40P AD=40P PS=44U PD=44U 
Mtr_00537 153 269 403 403 tp L=1U W=10U AS=20P AD=20P PS=24U PD=24U 
Mtr_00536 403 233 152 403 tp L=1U W=10U AS=20P AD=20P PS=24U PD=24U 
Mtr_00535 131 153 128 403 tp L=1U W=20U AS=40P AD=40P PS=44U PD=44U 
Mtr_00534 128 233 403 403 tp L=1U W=20U AS=40P AD=40P PS=44U PD=44U 
Mtr_00533 128 152 131 403 tp L=1U W=20U AS=40P AD=40P PS=44U PD=44U 
Mtr_00532 403 269 128 403 tp L=1U W=20U AS=40P AD=40P PS=44U PD=44U 
Mtr_00531 403 145 123 403 tp L=1U W=20U AS=40P AD=40P PS=44U PD=44U 
Mtr_00530 145 303 403 403 tp L=1U W=10U AS=20P AD=20P PS=24U PD=24U 
Mtr_00529 403 125 120 403 tp L=1U W=10U AS=20P AD=20P PS=24U PD=24U 
Mtr_00528 120 119 145 403 tp L=1U W=10U AS=20P AD=20P PS=24U PD=24U 
Mtr_00527 403 146 323 403 tp L=1U W=20U AS=40P AD=40P PS=44U PD=44U 
Mtr_00526 146 396 403 403 tp L=1U W=10U AS=20P AD=20P PS=24U PD=24U 
Mtr_00525 403 122 124 403 tp L=1U W=10U AS=20P AD=20P PS=24U PD=24U 
Mtr_00524 124 123 146 403 tp L=1U W=10U AS=20P AD=20P PS=24U PD=24U 
Mtr_00523 125 147 403 403 tp L=1U W=20U AS=40P AD=40P PS=44U PD=44U 
Mtr_00522 403 149 147 403 tp L=1U W=10U AS=20P AD=20P PS=24U PD=24U 
Mtr_00521 147 131 403 403 tp L=1U W=10U AS=20P AD=20P PS=24U PD=24U 
Mtr_00520 136 101 403 403 tp L=1U W=20U AS=40P AD=40P PS=44U PD=44U 
Mtr_00519 97 96 98 403 tp L=1U W=20U AS=40P AD=40P PS=44U PD=44U 
Mtr_00518 97 95 403 403 tp L=1U W=14.5U AS=29P AD=29P PS=33U PD=33U 
Mtr_00517 403 304 97 403 tp L=1U W=14.5U AS=29P AD=29P PS=33U PD=33U 
Mtr_00516 98 104 101 403 tp L=1U W=20U AS=40P AD=40P PS=44U PD=44U 
Mtr_00515 101 267 97 403 tp L=1U W=20U AS=40P AD=40P PS=44U PD=44U 
Mtr_00514 113 170 107 403 tp L=1U W=20U AS=40P AD=40P PS=44U PD=44U 
Mtr_00513 107 312 403 403 tp L=1U W=20U AS=40P AD=40P PS=44U PD=44U 
Mtr_00512 106 279 113 403 tp L=1U W=20U AS=40P AD=40P PS=44U PD=44U 
Mtr_00511 403 141 106 403 tp L=1U W=20U AS=40P AD=40P PS=44U PD=44U 
Mtr_00510 77 118 115 403 tp L=1U W=10U AS=20P AD=20P PS=24U PD=24U 
Mtr_00509 403 111 78 403 tp L=1U W=10U AS=20P AD=20P PS=24U PD=24U 
Mtr_00508 75 396 403 403 tp L=1U W=10U AS=20P AD=20P PS=24U PD=24U 
Mtr_00507 115 109 75 403 tp L=1U W=10U AS=20P AD=20P PS=24U PD=24U 
Mtr_00506 78 112 77 403 tp L=1U W=10U AS=20P AD=20P PS=24U PD=24U 
Mtr_00505 79 113 78 403 tp L=1U W=10U AS=20P AD=20P PS=24U PD=24U 
Mtr_00504 115 267 79 403 tp L=1U W=10U AS=20P AD=20P PS=24U PD=24U 
Mtr_00503 380 115 403 403 tp L=1U W=20U AS=40P AD=40P PS=44U PD=44U 
Mtr_00502 118 267 403 403 tp L=1U W=7U AS=14P AD=14P PS=18U PD=18U 
Mtr_00501 403 396 111 403 tp L=1U W=7U AS=14P AD=14P PS=18U PD=18U 
Mtr_00500 103 149 403 403 tp L=1U W=10U AS=20P AD=20P PS=24U PD=24U 
Mtr_00499 403 103 102 403 tp L=1U W=20U AS=40P AD=40P PS=44U PD=44U 
Mtr_00498 102 131 104 403 tp L=1U W=20U AS=40P AD=40P PS=44U PD=44U 
Mtr_00497 403 312 132 403 tp L=1U W=10U AS=20P AD=20P PS=24U PD=24U 
Mtr_00496 157 132 403 403 tp L=1U W=20U AS=40P AD=40P PS=44U PD=44U 
Mtr_00495 403 134 132 403 tp L=1U W=10U AS=20P AD=20P PS=24U PD=24U 
Mtr_00494 132 267 403 403 tp L=1U W=10U AS=20P AD=20P PS=24U PD=24U 
Mtr_00493 161 133 403 403 tp L=1U W=20U AS=40P AD=40P PS=44U PD=44U 
Mtr_00492 403 134 133 403 tp L=1U W=10U AS=20P AD=20P PS=24U PD=24U 
Mtr_00491 133 267 403 403 tp L=1U W=10U AS=20P AD=20P PS=24U PD=24U 
Mtr_00490 403 135 93 403 tp L=1U W=20U AS=40P AD=40P PS=44U PD=44U 
Mtr_00489 294 136 93 403 tp L=1U W=20U AS=40P AD=40P PS=44U PD=44U 
Mtr_00488 93 396 294 403 tp L=1U W=20U AS=40P AD=40P PS=44U PD=44U 
Mtr_00487 92 199 95 403 tp L=1U W=20U AS=40P AD=40P PS=44U PD=44U 
Mtr_00486 403 373 92 403 tp L=1U W=20U AS=40P AD=40P PS=44U PD=44U 
Mtr_00485 87 88 403 403 tp L=1U W=20U AS=40P AD=40P PS=44U PD=44U 
Mtr_00484 403 279 88 403 tp L=1U W=10U AS=20P AD=20P PS=24U PD=24U 
Mtr_00483 88 269 403 403 tp L=1U W=10U AS=20P AD=20P PS=24U PD=24U 
Mtr_00482 82 80 403 403 tp L=1U W=20U AS=40P AD=40P PS=44U PD=44U 
Mtr_00481 403 180 80 403 tp L=1U W=10U AS=20P AD=20P PS=24U PD=24U 
Mtr_00480 80 269 403 403 tp L=1U W=10U AS=20P AD=20P PS=24U PD=24U 
Mtr_00479 403 83 81 403 tp L=1U W=20U AS=40P AD=40P PS=44U PD=44U 
Mtr_00478 83 149 403 403 tp L=1U W=10U AS=20P AD=20P PS=24U PD=24U 
Mtr_00477 403 86 84 403 tp L=1U W=10U AS=20P AD=20P PS=24U PD=24U 
Mtr_00476 84 82 83 403 tp L=1U W=10U AS=20P AD=20P PS=24U PD=24U 
Mtr_00475 85 87 86 403 tp L=1U W=20U AS=40P AD=40P PS=44U PD=44U 
Mtr_00474 403 180 85 403 tp L=1U W=20U AS=40P AD=40P PS=44U PD=44U 
Mtr_00473 109 73 403 403 tp L=1U W=20U AS=40P AD=40P PS=44U PD=44U 
Mtr_00472 76 72 74 403 tp L=1U W=20U AS=40P AD=40P PS=44U PD=44U 
Mtr_00471 76 242 403 403 tp L=1U W=14.5U AS=29P AD=29P PS=33U PD=33U 
Mtr_00470 403 95 76 403 tp L=1U W=14.5U AS=29P AD=29P PS=33U PD=33U 
Mtr_00469 74 81 73 403 tp L=1U W=20U AS=40P AD=40P PS=44U PD=44U 
Mtr_00468 73 267 76 403 tp L=1U W=20U AS=40P AD=40P PS=44U PD=44U 
Mtr_00467 403 70 71 403 tp L=1U W=10U AS=20P AD=20P PS=24U PD=24U 
Mtr_00466 72 71 403 403 tp L=1U W=20U AS=40P AD=40P PS=44U PD=44U 
Mtr_00465 403 269 71 403 tp L=1U W=10U AS=20P AD=20P PS=24U PD=24U 
Mtr_00464 71 212 403 403 tp L=1U W=10U AS=20P AD=20P PS=24U PD=24U 
Mtr_00463 403 171 61 403 tp L=1U W=20U AS=40P AD=40P PS=44U PD=44U 
Mtr_00462 60 59 135 403 tp L=1U W=20U AS=40P AD=40P PS=44U PD=44U 
Mtr_00461 61 312 60 403 tp L=1U W=20U AS=40P AD=40P PS=44U PD=44U 
Mtr_00460 58 303 65 403 tp L=1U W=20U AS=40P AD=40P PS=44U PD=44U 
Mtr_00459 403 396 58 403 tp L=1U W=20U AS=40P AD=40P PS=44U PD=44U 
Mtr_00458 64 304 67 403 tp L=1U W=20U AS=40P AD=40P PS=44U PD=44U 
Mtr_00457 403 141 64 403 tp L=1U W=20U AS=40P AD=40P PS=44U PD=44U 
Mtr_00456 59 65 403 403 tp L=1U W=15U AS=30P AD=30P PS=34U PD=34U 
Mtr_00455 403 69 324 403 tp L=1U W=20U AS=40P AD=40P PS=44U PD=44U 
Mtr_00454 69 65 403 403 tp L=1U W=10U AS=20P AD=20P PS=24U PD=24U 
Mtr_00453 403 66 68 403 tp L=1U W=10U AS=20P AD=20P PS=24U PD=24U 
Mtr_00452 68 67 69 403 tp L=1U W=10U AS=20P AD=20P PS=24U PD=24U 
Mtr_00451 63 141 96 403 tp L=1U W=20U AS=40P AD=40P PS=44U PD=44U 
Mtr_00450 403 62 63 403 tp L=1U W=20U AS=40P AD=40P PS=44U PD=44U 
Mtr_00449 403 43 122 403 tp L=1U W=20U AS=40P AD=40P PS=44U PD=44U 
Mtr_00448 43 267 403 403 tp L=1U W=10U AS=20P AD=20P PS=24U PD=24U 
Mtr_00447 403 42 26 403 tp L=1U W=10U AS=20P AD=20P PS=24U PD=24U 
Mtr_00446 26 47 43 403 tp L=1U W=10U AS=20P AD=20P PS=24U PD=24U 
Mtr_00445 403 39 23 403 tp L=1U W=20U AS=40P AD=40P PS=44U PD=44U 
Mtr_00444 42 48 23 403 tp L=1U W=20U AS=40P AD=40P PS=44U PD=44U 
Mtr_00443 23 40 42 403 tp L=1U W=20U AS=40P AD=40P PS=44U PD=44U 
Mtr_00442 30 87 49 403 tp L=1U W=15U AS=30P AD=30P PS=34U PD=34U 
Mtr_00441 403 242 30 403 tp L=1U W=15U AS=30P AD=30P PS=34U PD=34U 
Mtr_00440 48 49 403 403 tp L=1U W=20U AS=40P AD=40P PS=44U PD=44U 
Mtr_00439 47 46 403 403 tp L=1U W=20U AS=40P AD=40P PS=44U PD=44U 
Mtr_00438 403 70 46 403 tp L=1U W=10U AS=20P AD=20P PS=24U PD=24U 
Mtr_00437 46 87 403 403 tp L=1U W=10U AS=20P AD=20P PS=24U PD=24U 
Mtr_00436 39 149 403 403 tp L=1U W=15U AS=30P AD=30P PS=34U PD=34U 
Mtr_00435 303 267 403 403 tp L=1U W=15U AS=30P AD=30P PS=34U PD=34U 
Mtr_00434 62 278 403 403 tp L=1U W=10U AS=20P AD=20P PS=24U PD=24U 
Mtr_00433 403 269 62 403 tp L=1U W=10U AS=20P AD=20P PS=24U PD=24U 
Mtr_00432 12 36 33 403 tp L=1U W=15U AS=30P AD=30P PS=34U PD=34U 
Mtr_00431 403 373 12 403 tp L=1U W=15U AS=30P AD=30P PS=34U PD=34U 
Mtr_00430 171 33 403 403 tp L=1U W=20U AS=40P AD=40P PS=44U PD=44U 
Mtr_00429 17 180 38 403 tp L=1U W=15U AS=30P AD=30P PS=34U PD=34U 
Mtr_00428 403 278 17 403 tp L=1U W=15U AS=30P AD=30P PS=34U PD=34U 
Mtr_00427 40 38 403 403 tp L=1U W=20U AS=40P AD=40P PS=44U PD=44U 
Mtr_00426 14 312 149 403 tp L=1U W=20U AS=40P AD=40P PS=44U PD=44U 
Mtr_00425 403 373 14 403 tp L=1U W=20U AS=40P AD=40P PS=44U PD=44U 
Mtr_00424 11 62 32 403 tp L=1U W=15U AS=30P AD=30P PS=34U PD=34U 
Mtr_00423 403 180 11 403 tp L=1U W=15U AS=30P AD=30P PS=34U PD=34U 
Mtr_00422 304 32 403 403 tp L=1U W=20U AS=40P AD=40P PS=44U PD=44U 
Mtr_00421 10 62 31 403 tp L=1U W=15U AS=30P AD=30P PS=34U PD=34U 
Mtr_00420 403 242 10 403 tp L=1U W=15U AS=30P AD=30P PS=34U PD=34U 
Mtr_00419 134 31 403 403 tp L=1U W=20U AS=40P AD=40P PS=44U PD=44U 
Mtr_00418 66 37 403 403 tp L=1U W=20U AS=40P AD=40P PS=44U PD=44U 
Mtr_00417 403 149 37 403 tp L=1U W=10U AS=20P AD=20P PS=24U PD=24U 
Mtr_00416 37 36 403 403 tp L=1U W=10U AS=20P AD=20P PS=24U PD=24U 
Mtr_00415 403 27 29 403 tp L=1U W=20U AS=40P AD=40P PS=44U PD=44U 
Mtr_00414 29 28 177 403 tp L=1U W=20U AS=40P AD=40P PS=44U PD=44U 
Mtr_00413 29 278 403 403 tp L=1U W=20U AS=40P AD=40P PS=44U PD=44U 
Mtr_00412 177 269 29 403 tp L=1U W=20U AS=40P AD=40P PS=44U PD=44U 
Mtr_00411 403 278 28 403 tp L=1U W=10U AS=20P AD=20P PS=24U PD=24U 
Mtr_00410 27 269 403 403 tp L=1U W=10U AS=20P AD=20P PS=24U PD=24U 
Mtr_00409 141 70 403 403 tp L=1U W=15U AS=30P AD=30P PS=34U PD=34U 
Mtr_00408 258 373 403 403 tp L=1U W=15U AS=30P AD=30P PS=34U PD=34U 
Mtr_00407 9 373 70 403 tp L=1U W=20U AS=40P AD=40P PS=44U PD=44U 
Mtr_00406 403 376 9 403 tp L=1U W=20U AS=40P AD=40P PS=44U PD=44U 
Mtr_00405 16 18 15 403 tp L=1U W=10U AS=20P AD=20P PS=24U PD=24U 
Mtr_00404 16 70 403 403 tp L=1U W=10U AS=20P AD=20P PS=24U PD=24U 
Mtr_00403 403 13 16 403 tp L=1U W=10U AS=20P AD=20P PS=24U PD=24U 
Mtr_00402 15 376 16 403 tp L=1U W=10U AS=20P AD=20P PS=24U PD=24U 
Mtr_00401 112 15 403 403 tp L=1U W=20U AS=40P AD=40P PS=44U PD=44U 
Mtr_00400 13 36 403 403 tp L=1U W=10U AS=20P AD=20P PS=24U PD=24U 
Mtr_00399 403 177 13 403 tp L=1U W=10U AS=20P AD=20P PS=24U PD=24U 
Mtr_00398 19 40 21 403 tp L=1U W=15U AS=30P AD=30P PS=34U PD=34U 
Mtr_00397 403 269 19 403 tp L=1U W=15U AS=30P AD=30P PS=34U PD=34U 
Mtr_00396 20 21 403 403 tp L=1U W=20U AS=40P AD=40P PS=44U PD=44U 
Mtr_00395 36 242 403 403 tp L=1U W=10U AS=20P AD=20P PS=24U PD=24U 
Mtr_00394 403 269 36 403 tp L=1U W=10U AS=20P AD=20P PS=24U PD=24U 
Mtr_00393 403 258 18 403 tp L=1U W=10U AS=20P AD=20P PS=24U PD=24U 
Mtr_00392 18 20 403 403 tp L=1U W=10U AS=20P AD=20P PS=24U PD=24U 
Mtr_00391 18 22 403 403 tp L=1U W=10U AS=20P AD=20P PS=24U PD=24U 
Mtr_00390 25 177 24 403 tp L=1U W=15U AS=30P AD=30P PS=34U PD=34U 
Mtr_00389 403 242 25 403 tp L=1U W=15U AS=30P AD=30P PS=34U PD=34U 
Mtr_00388 22 24 403 403 tp L=1U W=20U AS=40P AD=40P PS=44U PD=44U 
Mtr_00387 312 376 403 403 tp L=1U W=15U AS=30P AD=30P PS=34U PD=34U 
Mtr_00386 180 242 403 403 tp L=1U W=15U AS=30P AD=30P PS=34U PD=34U 
Mtr_00385 353 401 404 353 tn L=1U W=10U AS=20P AD=20P PS=24U PD=24U 
Mtr_00384 353 372 378 353 tn L=1U W=10U AS=20P AD=20P PS=24U PD=24U 
Mtr_00383 316 371 353 353 tn L=1U W=10U AS=20P AD=20P PS=24U PD=24U 
Mtr_00382 317 374 316 353 tn L=1U W=10U AS=20P AD=20P PS=24U PD=24U 